test/data/case73.raw
 0,    100.00, 33, 0, 0, 60.00       / February 02, 2017 13:50:17; Simulator Version 19; BuildDate 2017_1_17


  101,'101         ', 138.0000,2,   1,   1,   1,1.04777002,  -7.741520, 1.10000, 0.90000, 1.10000, 0.90000
  102,'102         ', 138.0000,2,   1,   1,   1,1.04782999,  -7.817840, 1.10000, 0.90000, 1.10000, 0.90000
  103,'103         ', 138.0000,1,   1,   1,   1,1.01084995,  -7.210900, 1.10000, 0.90000, 1.10000, 0.90000
  104,'104         ', 138.0000,1,   1,   1,   1,1.01765001, -10.566140, 1.10000, 0.90000, 1.10000, 0.90000
  105,'105         ', 138.0000,1,   1,   1,   1,1.03568006, -10.708870, 1.10000, 0.90000, 1.10000, 0.90000
  106,'106         ', 138.0000,1,   1,   1,   1,1.03242004, -13.279440, 1.10000, 0.90000, 1.10000, 0.90000
  107,'107         ', 138.0000,2,   1,   1,   1,1.03744996, -11.276730, 1.10000, 0.90000, 1.10000, 0.90000
  108,'108         ', 138.0000,1,   1,   1,   1,1.01023996, -13.749670, 1.10000, 0.90000, 1.10000, 0.90000
  109,'109         ', 138.0000,1,   1,   1,   1,1.02610004,  -8.815240, 1.10000, 0.90000, 1.10000, 0.90000
  110,'110         ', 138.0000,1,   1,   1,   1,1.04999995, -10.620630, 1.10000, 0.90000, 1.10000, 0.90000
  111,'111         ', 230.0000,1,   1,   1,   1,1.02763999,  -3.916740, 1.10000, 0.90000, 1.10000, 0.90000
  112,'112         ', 230.0000,1,   1,   1,   1,1.02023995,  -2.424240, 1.10000, 0.90000, 1.10000, 0.90000
  113,'113         ', 230.0000,3,   1,   1,   1,1.03943002,   0.000000, 1.10000, 0.90000, 1.10000, 0.90000
  114,'114         ', 230.0000,2,   1,   1,   1,1.04401004,  -1.730560, 1.10000, 0.90000, 1.10000, 0.90000
  115,'115         ', 230.0000,2,   1,   1,   1,1.04334998,   7.959700, 1.10000, 0.90000, 1.10000, 0.90000
  116,'116         ', 230.0000,2,   1,   1,   1,1.04565001,   7.569290, 1.10000, 0.90000, 1.10000, 0.90000
  117,'117         ', 230.0000,1,   1,   1,   1,1.04782999,  11.434170, 1.10000, 0.90000, 1.10000, 0.90000
  118,'118         ', 230.0000,2,   1,   1,   1,1.04999995,  12.524570, 1.10000, 0.90000, 1.10000, 0.90000
  119,'119         ', 230.0000,1,   1,   1,   1,1.03962004,   6.657770, 1.10000, 0.90000, 1.10000, 0.90000
  120,'120         ', 230.0000,1,   1,   1,   1,1.04399002,   7.740600, 1.10000, 0.90000, 1.10000, 0.90000
  121,'121         ', 230.0000,2,   1,   1,   1,1.04999995,  13.086530, 1.10000, 0.90000, 1.10000, 0.90000
  122,'122         ', 230.0000,2,   1,   1,   1,1.04999995,  18.949779, 1.10000, 0.90000, 1.10000, 0.90000
  123,'123         ', 230.0000,2,   1,   1,   1,1.04999995,   9.056170, 1.10000, 0.90000, 1.10000, 0.90000
  124,'124         ', 230.0000,1,   1,   1,   1,1.01154995,   2.383390, 1.10000, 0.90000, 1.10000, 0.90000
  201,'201         ', 138.0000,2,   2,   2,   1,1.04841006, -10.689730, 1.10000, 0.90000, 1.10000, 0.90000
  202,'202         ', 138.0000,2,   2,   2,   1,1.04843998, -10.759060, 1.10000, 0.90000, 1.10000, 0.90000
  203,'203         ', 138.0000,1,   2,   2,   1,1.01885998, -10.474530, 1.10000, 0.90000, 1.10000, 0.90000
  204,'204         ', 138.0000,1,   2,   2,   1,1.01890004, -13.484790, 1.10000, 0.90000, 1.10000, 0.90000
  205,'205         ', 138.0000,1,   2,   2,   1,1.03603005, -13.611870, 1.10000, 0.90000, 1.10000, 0.90000
  206,'206         ', 138.0000,1,   2,   2,   1,1.03259003, -16.156720, 1.10000, 0.90000, 1.10000, 0.90000
  207,'207         ', 138.0000,2,   2,   2,   1,1.03972995, -13.466060, 1.10000, 0.90000, 1.10000, 0.90000
  208,'208         ', 138.0000,1,   2,   2,   1,1.01203001, -16.223590, 1.10000, 0.90000, 1.10000, 0.90000
  209,'209         ', 138.0000,1,   2,   2,   1,1.02780998, -11.724090, 1.10000, 0.90000, 1.10000, 0.90000
  210,'210         ', 138.0000,1,   2,   2,   1,1.04999995, -13.479860, 1.10000, 0.90000, 1.10000, 0.90000
  211,'211         ', 230.0000,1,   2,   2,   1,1.02734995,  -6.933360, 1.10000, 0.90000, 1.10000, 0.90000
  212,'212         ', 230.0000,1,   2,   2,   1,1.01920998,  -5.253340, 1.10000, 0.90000, 1.10000, 0.90000
  213,'213         ', 230.0000,2,   2,   2,   1,1.03752005,  -3.215100, 1.10000, 0.90000, 1.10000, 0.90000
  214,'214         ', 230.0000,2,   2,   2,   1,1.04334998,  -4.685190, 1.10000, 0.90000, 1.10000, 0.90000
  215,'215         ', 230.0000,2,   2,   2,   1,1.04326999,   4.633510, 1.10000, 0.90000, 1.10000, 0.90000
  216,'216         ', 230.0000,2,   2,   2,   1,1.04556000,   4.700090, 1.10000, 0.90000, 1.10000, 0.90000
  217,'217         ', 230.0000,1,   2,   2,   1,1.04847002,   8.818390, 1.10000, 0.90000, 1.10000, 0.90000
  218,'218         ', 230.0000,2,   2,   2,   1,1.04999995,   9.994730, 1.10000, 0.90000, 1.10000, 0.90000
  219,'219         ', 230.0000,1,   2,   2,   1,1.03945994,   4.212330, 1.10000, 0.90000, 1.10000, 0.90000
  220,'220         ', 230.0000,1,   2,   2,   1,1.04380000,   5.664490, 1.10000, 0.90000, 1.10000, 0.90000
  221,'221         ', 230.0000,2,   2,   2,   1,1.04999995,  10.632090, 1.10000, 0.90000, 1.10000, 0.90000
  222,'222         ', 230.0000,2,   2,   2,   1,1.04999995,  16.432030, 1.10000, 0.90000, 1.10000, 0.90000
  223,'223         ', 230.0000,2,   2,   2,   1,1.04999995,   7.181510, 1.10000, 0.90000, 1.10000, 0.90000
  224,'224         ', 230.0000,1,   2,   2,   1,1.01455998,  -0.960050, 1.10000, 0.90000, 1.10000, 0.90000
  301,'301         ', 138.0000,2,   3,   3,   1,1.04859996,  -9.348210, 1.10000, 0.90000, 1.10000, 0.90000
  302,'302         ', 138.0000,2,   3,   3,   1,1.04864001,  -9.431000, 1.10000, 0.90000, 1.10000, 0.90000
  303,'303         ', 138.0000,1,   3,   3,   1,1.01045001,  -8.576890, 1.10000, 0.90000, 1.10000, 0.90000
  304,'304         ', 138.0000,1,   3,   3,   1,1.01785004, -12.187840, 1.10000, 0.90000, 1.10000, 0.90000
  305,'305         ', 138.0000,1,   3,   3,   1,1.03609002, -12.350050, 1.10000, 0.90000, 1.10000, 0.90000
  306,'306         ', 138.0000,1,   3,   3,   1,1.03260005, -14.942050, 1.10000, 0.90000, 1.10000, 0.90000
  307,'307         ', 138.0000,2,   3,   3,   1,1.03804004, -12.547950, 1.10000, 0.90000, 1.10000, 0.90000
  308,'308         ', 138.0000,1,   3,   3,   1,1.01056004, -15.182870, 1.10000, 0.90000, 1.10000, 0.90000
  309,'309         ', 138.0000,1,   3,   3,   1,1.02578998, -10.446170, 1.10000, 0.90000, 1.10000, 0.90000
  310,'310         ', 138.0000,1,   3,   3,   1,1.04999995, -12.301170, 1.10000, 0.90000, 1.10000, 0.90000
  311,'311         ', 230.0000,1,   3,   3,   1,1.02830005,  -5.740690, 1.10000, 0.90000, 1.10000, 0.90000
  312,'312         ', 230.0000,1,   3,   3,   1,1.01900005,  -4.146040, 1.10000, 0.90000, 1.10000, 0.90000
  313,'313         ', 230.0000,2,   3,   3,   1,1.03802001,  -2.415130, 1.10000, 0.90000, 1.10000, 0.90000
  314,'314         ', 230.0000,2,   3,   3,   1,1.04630995,  -3.207930, 1.10000, 0.90000, 1.10000, 0.90000
  315,'315         ', 230.0000,2,   3,   3,   1,1.04299998,   7.050880, 1.10000, 0.90000, 1.10000, 0.90000
  316,'316         ', 230.0000,2,   3,   3,   1,1.04558003,   6.598750, 1.10000, 0.90000, 1.10000, 0.90000
  317,'317         ', 230.0000,1,   3,   3,   1,1.04785001,  10.344180, 1.10000, 0.90000, 1.10000, 0.90000
  318,'318         ', 230.0000,2,   3,   3,   1,1.04999995,  11.342620, 1.10000, 0.90000, 1.10000, 0.90000
  319,'319         ', 230.0000,1,   3,   3,   1,1.03953004,   5.915390, 1.10000, 0.90000, 1.10000, 0.90000
  320,'320         ', 230.0000,1,   3,   3,   1,1.04389000,   7.197090, 1.10000, 0.90000, 1.10000, 0.90000
  321,'321         ', 230.0000,2,   3,   3,   1,1.04999995,  12.341220, 1.10000, 0.90000, 1.10000, 0.90000
  322,'322         ', 230.0000,2,   3,   3,   1,1.04999995,  18.069141, 1.10000, 0.90000, 1.10000, 0.90000
  323,'323         ', 230.0000,2,   3,   3,   1,1.04999995,   8.621120, 1.10000, 0.90000, 1.10000, 0.90000
  324,'324         ', 230.0000,1,   3,   3,   1,1.01046002,   1.306060, 1.10000, 0.90000, 1.10000, 0.90000
  325,'325         ', 230.0000,1,   3,   3,   1,1.04986000,   8.993320, 1.10000, 0.90000, 1.10000, 0.90000
0 / END OF BUS DATA, BEGIN LOAD DATA
  101,'1 ',1,   1,   1,   108.000,    22.000,     0.000,     0.000,     0.000,     0.000,   1,1
  102,'1 ',1,   1,   1,    97.000,    20.000,     0.000,     0.000,     0.000,     0.000,   1,1
  103,'1 ',1,   1,   1,   180.000,    37.000,     0.000,     0.000,     0.000,     0.000,   1,1
  104,'1 ',1,   1,   1,    74.000,    15.000,     0.000,     0.000,     0.000,     0.000,   1,1
  105,'1 ',1,   1,   1,    71.000,    14.000,     0.000,     0.000,     0.000,     0.000,   1,1
  106,'1 ',1,   1,   1,   136.000,    28.000,     0.000,     0.000,     0.000,     0.000,   1,1
  107,'1 ',1,   1,   1,   125.000,    25.000,     0.000,     0.000,     0.000,     0.000,   1,1
  108,'1 ',1,   1,   1,   171.000,    35.000,     0.000,     0.000,     0.000,     0.000,   1,1
  109,'1 ',1,   1,   1,   175.000,    36.000,     0.000,     0.000,     0.000,     0.000,   1,1
  110,'1 ',1,   1,   1,   195.000,    40.000,     0.000,     0.000,     0.000,     0.000,   1,1
  113,'1 ',1,   1,   1,   265.000,    54.000,     0.000,     0.000,     0.000,     0.000,   1,1
  114,'1 ',1,   1,   1,   194.000,    39.000,     0.000,     0.000,     0.000,     0.000,   1,1
  115,'1 ',1,   1,   1,   317.000,    64.000,     0.000,     0.000,     0.000,     0.000,   1,1
  116,'1 ',1,   1,   1,   100.000,    20.000,     0.000,     0.000,     0.000,     0.000,   1,1
  118,'1 ',1,   1,   1,   333.000,    68.000,     0.000,     0.000,     0.000,     0.000,   1,1
  119,'1 ',1,   1,   1,   181.000,    37.000,     0.000,     0.000,     0.000,     0.000,   1,1
  120,'1 ',1,   1,   1,   128.000,    26.000,     0.000,     0.000,     0.000,     0.000,   1,1
  201,'1 ',1,   2,   1,   108.000,    22.000,     0.000,     0.000,     0.000,     0.000,   1,1
  202,'1 ',1,   2,   1,    97.000,    20.000,     0.000,     0.000,     0.000,     0.000,   1,1
  203,'1 ',1,   2,   1,   180.000,    37.000,     0.000,     0.000,     0.000,     0.000,   1,1
  204,'1 ',1,   2,   1,    74.000,    15.000,     0.000,     0.000,     0.000,     0.000,   1,1
  205,'1 ',1,   2,   1,    71.000,    14.000,     0.000,     0.000,     0.000,     0.000,   1,1
  206,'1 ',1,   2,   1,   136.000,    28.000,     0.000,     0.000,     0.000,     0.000,   1,1
  207,'1 ',1,   2,   1,   125.000,    25.000,     0.000,     0.000,     0.000,     0.000,   1,1
  208,'1 ',1,   2,   1,   171.000,    35.000,     0.000,     0.000,     0.000,     0.000,   1,1
  209,'1 ',1,   2,   1,   175.000,    36.000,     0.000,     0.000,     0.000,     0.000,   1,1
  210,'1 ',1,   2,   1,   195.000,    40.000,     0.000,     0.000,     0.000,     0.000,   1,1
  213,'1 ',1,   2,   1,   265.000,    54.000,     0.000,     0.000,     0.000,     0.000,   1,1
  214,'1 ',1,   2,   1,   194.000,    39.000,     0.000,     0.000,     0.000,     0.000,   1,1
  215,'1 ',1,   2,   1,   317.000,    64.000,     0.000,     0.000,     0.000,     0.000,   1,1
  216,'1 ',1,   2,   1,   100.000,    20.000,     0.000,     0.000,     0.000,     0.000,   1,1
  218,'1 ',1,   2,   1,   333.000,    68.000,     0.000,     0.000,     0.000,     0.000,   1,1
  219,'1 ',1,   2,   1,   181.000,    37.000,     0.000,     0.000,     0.000,     0.000,   1,1
  220,'1 ',1,   2,   1,   128.000,    26.000,     0.000,     0.000,     0.000,     0.000,   1,1
  301,'1 ',1,   3,   1,   108.000,    22.000,     0.000,     0.000,     0.000,     0.000,   1,1
  302,'1 ',1,   3,   1,    97.000,    20.000,     0.000,     0.000,     0.000,     0.000,   1,1
  303,'1 ',1,   3,   1,   180.000,    37.000,     0.000,     0.000,     0.000,     0.000,   1,1
  304,'1 ',1,   3,   1,    74.000,    15.000,     0.000,     0.000,     0.000,     0.000,   1,1
  305,'1 ',1,   3,   1,    71.000,    14.000,     0.000,     0.000,     0.000,     0.000,   1,1
  306,'1 ',1,   3,   1,   136.000,    28.000,     0.000,     0.000,     0.000,     0.000,   1,1
  307,'1 ',1,   3,   1,   125.000,    25.000,     0.000,     0.000,     0.000,     0.000,   1,1
  308,'1 ',1,   3,   1,   171.000,    35.000,     0.000,     0.000,     0.000,     0.000,   1,1
  309,'1 ',1,   3,   1,   175.000,    36.000,     0.000,     0.000,     0.000,     0.000,   1,1
  310,'1 ',1,   3,   1,   195.000,    40.000,     0.000,     0.000,     0.000,     0.000,   1,1
  313,'1 ',1,   3,   1,   265.000,    54.000,     0.000,     0.000,     0.000,     0.000,   1,1
  314,'1 ',1,   3,   1,   194.000,    39.000,     0.000,     0.000,     0.000,     0.000,   1,1
  315,'1 ',1,   3,   1,   317.000,    64.000,     0.000,     0.000,     0.000,     0.000,   1,1
  316,'1 ',1,   3,   1,   100.000,    20.000,     0.000,     0.000,     0.000,     0.000,   1,1
  318,'1 ',1,   3,   1,   333.000,    68.000,     0.000,     0.000,     0.000,     0.000,   1,1
  319,'1 ',1,   3,   1,   181.000,    37.000,     0.000,     0.000,     0.000,     0.000,   1,1
  320,'1 ',1,   3,   1,   128.000,    26.000,     0.000,     0.000,     0.000,     0.000,   1,1
0 / END OF LOAD DATA, BEGIN FIXED SHUNT DATA
0 / END OF FIXED SHUNT DATA, BEGIN GENERATOR DATA
  101,'1 ',    16.000,     4.880,    10.000,     0.000,1.04777,    0,   100.000,   0.00000,   1.00000,   0.00000,   0.00000,1.00000,1,  100.0,    20.000,    16.000,   1,1.0000,   0,1.0000,   0,1.0000,   0,1.0000,0, 1.0000
  101,'2 ',    16.000,     4.880,    10.000,     0.000,1.04777,    0,   100.000,   0.00000,   1.00000,   0.00000,   0.00000,1.00000,1,  100.0,    20.000,    16.000,   1,1.0000,   0,1.0000,   0,1.0000,   0,1.0000,0, 1.0000
  101,'3 ',    76.000,    -1.077,    30.000,   -25.000,1.04777,    0,   100.000,   0.00000,   1.00000,   0.00000,   0.00000,1.00000,1,  100.0,    76.000,    15.200,   1,1.0000,   0,1.0000,   0,1.0000,   0,1.0000,0, 1.0000
  101,'4 ',    76.000,    -1.077,    30.000,   -25.000,1.04777,    0,   100.000,   0.00000,   1.00000,   0.00000,   0.00000,1.00000,1,  100.0,    76.000,    15.200,   1,1.0000,   0,1.0000,   0,1.0000,   0,1.0000,0, 1.0000
  102,'1 ',    16.000,     4.820,    10.000,     0.000,1.04783,    0,   100.000,   0.00000,   1.00000,   0.00000,   0.00000,1.00000,1,  100.0,    20.000,    16.000,   1,1.0000,   0,1.0000,   0,1.0000,   0,1.0000,0, 1.0000
  102,'2 ',    16.000,     4.820,    10.000,     0.000,1.04783,    0,   100.000,   0.00000,   1.00000,   0.00000,   0.00000,1.00000,1,  100.0,    20.000,    16.000,   1,1.0000,   0,1.0000,   0,1.0000,   0,1.0000,0, 1.0000
  102,'3 ',    76.000,    -2.741,    30.000,   -25.000,1.04783,    0,   100.000,   0.00000,   1.00000,   0.00000,   0.00000,1.00000,1,  100.0,    76.000,    15.200,   1,1.0000,   0,1.0000,   0,1.0000,   0,1.0000,0, 1.0000
  102,'4 ',    76.000,    -2.741,    30.000,   -25.000,1.04783,    0,   100.000,   0.00000,   1.00000,   0.00000,   0.00000,1.00000,1,  100.0,    76.000,    15.200,   1,1.0000,   0,1.0000,   0,1.0000,   0,1.0000,0, 1.0000
  107,'1 ',    66.816,    20.616,    60.000,     0.000,1.03745,    0,   100.000,   0.00000,   1.00000,   0.00000,   0.00000,1.00000,1,  100.0,   100.000,    25.000,   1,1.0000,   0,1.0000,   0,1.0000,   0,1.0000,0, 1.0000
  107,'2 ',    66.816,    20.616,    60.000,     0.000,1.03745,    0,   100.000,   0.00000,   1.00000,   0.00000,   0.00000,1.00000,1,  100.0,   100.000,    25.000,   1,1.0000,   0,1.0000,   0,1.0000,   0,1.0000,0, 1.0000
  107,'3 ',    66.816,    20.616,    60.000,     0.000,1.03745,    0,   100.000,   0.00000,   1.00000,   0.00000,   0.00000,1.00000,1,  100.0,   100.000,    25.000,   1,1.0000,   0,1.0000,   0,1.0000,   0,1.0000,0, 1.0000
  113,'1 ',    69.000,    36.655,    80.000,     0.000,1.03943,    0,   100.000,   0.00000,   1.00000,   0.00000,   0.00000,1.00000,1,  100.0,   197.000,    69.000,   1,1.0000,   0,1.0000,   0,1.0000,   0,1.0000,0, 1.0000
  113,'2 ',    69.000,    36.655,    80.000,     0.000,1.03943,    0,   100.000,   0.00000,   1.00000,   0.00000,   0.00000,1.00000,1,  100.0,   197.000,    69.000,   1,1.0000,   0,1.0000,   0,1.0000,   0,1.0000,0, 1.0000
  113,'3 ',    69.000,    36.655,    80.000,     0.000,1.03943,    0,   100.000,   0.00000,   1.00000,   0.00000,   0.00000,1.00000,1,  100.0,   197.000,    69.000,   1,1.0000,   0,1.0000,   0,1.0000,   0,1.0000,0, 1.0000
  114,'1 ',     0.000,   106.688,   200.000,   -50.000,1.04401,    0,   100.000,   0.00000,   1.00000,   0.00000,   0.00000,1.00000,1,  100.0,     0.000,     0.000,   1,1.0000,   0,1.0000,   0,1.0000,   0,1.0000,0, 1.0000
  115,'1 ',     2.400,     6.000,     6.000,     0.000,1.04335,    0,   100.000,   0.00000,   1.00000,   0.00000,   0.00000,1.00000,1,  100.0,    12.000,     2.400,   1,1.0000,   0,1.0000,   0,1.0000,   0,1.0000,0, 1.0000
  115,'2 ',     2.400,     6.000,     6.000,     0.000,1.04335,    0,   100.000,   0.00000,   1.00000,   0.00000,   0.00000,1.00000,1,  100.0,    12.000,     2.400,   1,1.0000,   0,1.0000,   0,1.0000,   0,1.0000,0, 1.0000
  115,'3 ',     2.400,     6.000,     6.000,     0.000,1.04335,    0,   100.000,   0.00000,   1.00000,   0.00000,   0.00000,1.00000,1,  100.0,    12.000,     2.400,   1,1.0000,   0,1.0000,   0,1.0000,   0,1.0000,0, 1.0000
  115,'4 ',     2.400,     6.000,     6.000,     0.000,1.04335,    0,   100.000,   0.00000,   1.00000,   0.00000,   0.00000,1.00000,1,  100.0,    12.000,     2.400,   1,1.0000,   0,1.0000,   0,1.0000,   0,1.0000,0, 1.0000
  115,'5 ',     2.400,     6.000,     6.000,     0.000,1.04335,    0,   100.000,   0.00000,   1.00000,   0.00000,   0.00000,1.00000,1,  100.0,    12.000,     2.400,   1,1.0000,   0,1.0000,   0,1.0000,   0,1.0000,0, 1.0000
  115,'6 ',   155.000,    80.000,    80.000,   -50.000,1.04335,    0,   100.000,   0.00000,   1.00000,   0.00000,   0.00000,1.00000,1,  100.0,   155.000,    54.300,   1,1.0000,   0,1.0000,   0,1.0000,   0,1.0000,0, 1.0000
  116,'1 ',   155.000,    80.000,    80.000,   -50.000,1.04565,    0,   100.000,   0.00000,   1.00000,   0.00000,   0.00000,1.00000,1,  100.0,   155.000,    54.300,   1,1.0000,   0,1.0000,   0,1.0000,   0,1.0000,0, 1.0000
  118,'1 ',   400.000,    66.602,   200.000,   -50.000,1.05000,    0,   100.000,   0.00000,   1.00000,   0.00000,   0.00000,1.00000,1,  100.0,   400.000,   100.000,   1,1.0000,   0,1.0000,   0,1.0000,   0,1.0000,0, 1.0000
  121,'1 ',   400.000,   -25.009,   200.000,   -50.000,1.05000,    0,   100.000,   0.00000,   1.00000,   0.00000,   0.00000,1.00000,1,  100.0,   400.000,   100.000,   1,1.0000,   0,1.0000,   0,1.0000,   0,1.0000,0, 1.0000
  122,'1 ',    50.000,    -6.699,    16.000,   -10.000,1.05000,    0,   100.000,   0.00000,   1.00000,   0.00000,   0.00000,1.00000,1,  100.0,    50.000,    10.000,   1,1.0000,   0,1.0000,   0,1.0000,   0,1.0000,0, 1.0000
  122,'2 ',    50.000,    -6.699,    16.000,   -10.000,1.05000,    0,   100.000,   0.00000,   1.00000,   0.00000,   0.00000,1.00000,1,  100.0,    50.000,    10.000,   1,1.0000,   0,1.0000,   0,1.0000,   0,1.0000,0, 1.0000
  122,'3 ',    50.000,    -6.699,    16.000,   -10.000,1.05000,    0,   100.000,   0.00000,   1.00000,   0.00000,   0.00000,1.00000,1,  100.0,    50.000,    10.000,   1,1.0000,   0,1.0000,   0,1.0000,   0,1.0000,0, 1.0000
  122,'4 ',    50.000,    -6.699,    16.000,   -10.000,1.05000,    0,   100.000,   0.00000,   1.00000,   0.00000,   0.00000,1.00000,1,  100.0,    50.000,    10.000,   1,1.0000,   0,1.0000,   0,1.0000,   0,1.0000,0, 1.0000
  122,'5 ',    50.000,    -6.699,    16.000,   -10.000,1.05000,    0,   100.000,   0.00000,   1.00000,   0.00000,   0.00000,1.00000,1,  100.0,    50.000,    10.000,   1,1.0000,   0,1.0000,   0,1.0000,   0,1.0000,0, 1.0000
  122,'6 ',    50.000,    -6.699,    16.000,   -10.000,1.05000,    0,   100.000,   0.00000,   1.00000,   0.00000,   0.00000,1.00000,1,  100.0,    50.000,    10.000,   1,1.0000,   0,1.0000,   0,1.0000,   0,1.0000,0, 1.0000
  123,'1 ',   155.000,    -3.222,    80.000,   -50.000,1.05000,    0,   100.000,   0.00000,   1.00000,   0.00000,   0.00000,1.00000,1,  100.0,   155.000,    54.300,   1,1.0000,   0,1.0000,   0,1.0000,   0,1.0000,0, 1.0000
  123,'2 ',   155.000,    -3.222,    80.000,   -50.000,1.05000,    0,   100.000,   0.00000,   1.00000,   0.00000,   0.00000,1.00000,1,  100.0,   155.000,    54.300,   1,1.0000,   0,1.0000,   0,1.0000,   0,1.0000,0, 1.0000
  123,'3 ',   350.000,    31.240,   150.000,   -25.000,1.05000,    0,   100.000,   0.00000,   1.00000,   0.00000,   0.00000,1.00000,1,  100.0,   350.000,   140.000,   1,1.0000,   0,1.0000,   0,1.0000,   0,1.0000,0, 1.0000
  201,'1 ',    16.000,     4.824,    10.000,     0.000,1.04841,    0,   100.000,   0.00000,   1.00000,   0.00000,   0.00000,1.00000,1,  100.0,    20.000,    16.000,   1,1.0000,   0,1.0000,   0,1.0000,   0,1.0000,0, 1.0000
  201,'2 ',    16.000,     4.824,    10.000,     0.000,1.04841,    0,   100.000,   0.00000,   1.00000,   0.00000,   0.00000,1.00000,1,  100.0,    20.000,    16.000,   1,1.0000,   0,1.0000,   0,1.0000,   0,1.0000,0, 1.0000
  201,'3 ',    76.000,    -2.640,    30.000,   -25.000,1.04841,    0,   100.000,   0.00000,   1.00000,   0.00000,   0.00000,1.00000,1,  100.0,    76.000,    15.200,   1,1.0000,   0,1.0000,   0,1.0000,   0,1.0000,0, 1.0000
  201,'4 ',    76.000,    -2.640,    30.000,   -25.000,1.04841,    0,   100.000,   0.00000,   1.00000,   0.00000,   0.00000,1.00000,1,  100.0,    76.000,    15.200,   1,1.0000,   0,1.0000,   0,1.0000,   0,1.0000,0, 1.0000
  202,'1 ',    16.000,     4.811,    10.000,     0.000,1.04844,    0,   100.000,   0.00000,   1.00000,   0.00000,   0.00000,1.00000,1,  100.0,    20.000,    16.000,   1,1.0000,   0,1.0000,   0,1.0000,   0,1.0000,0, 1.0000
  202,'2 ',    16.000,     4.811,    10.000,     0.000,1.04844,    0,   100.000,   0.00000,   1.00000,   0.00000,   0.00000,1.00000,1,  100.0,    20.000,    16.000,   1,1.0000,   0,1.0000,   0,1.0000,   0,1.0000,0, 1.0000
  202,'3 ',    76.000,    -2.989,    30.000,   -25.000,1.04844,    0,   100.000,   0.00000,   1.00000,   0.00000,   0.00000,1.00000,1,  100.0,    76.000,    15.200,   1,1.0000,   0,1.0000,   0,1.0000,   0,1.0000,0, 1.0000
  202,'4 ',    76.000,    -2.989,    30.000,   -25.000,1.04844,    0,   100.000,   0.00000,   1.00000,   0.00000,   0.00000,1.00000,1,  100.0,    76.000,    15.200,   1,1.0000,   0,1.0000,   0,1.0000,   0,1.0000,0, 1.0000
  207,'1 ',    71.574,    16.584,    60.000,     0.000,1.03973,    0,   100.000,   0.00000,   1.00000,   0.00000,   0.00000,1.00000,1,  100.0,   100.000,    25.000,   1,1.0000,   0,1.0000,   0,1.0000,   0,1.0000,0, 1.0000
  207,'2 ',    71.574,    16.584,    60.000,     0.000,1.03973,    0,   100.000,   0.00000,   1.00000,   0.00000,   0.00000,1.00000,1,  100.0,   100.000,    25.000,   1,1.0000,   0,1.0000,   0,1.0000,   0,1.0000,0, 1.0000
  207,'3 ',    71.574,    16.584,    60.000,     0.000,1.03973,    0,   100.000,   0.00000,   1.00000,   0.00000,   0.00000,1.00000,1,  100.0,   100.000,    25.000,   1,1.0000,   0,1.0000,   0,1.0000,   0,1.0000,0, 1.0000
  213,'1 ',    90.186,    35.467,    80.000,     0.000,1.03752,    0,   100.000,   0.00000,   1.00000,   0.00000,   0.00000,1.00000,1,  100.0,   197.000,    69.000,   1,1.0000,   0,1.0000,   0,1.0000,   0,1.0000,0, 1.0000
  213,'2 ',    90.186,    35.467,    80.000,     0.000,1.03752,    0,   100.000,   0.00000,   1.00000,   0.00000,   0.00000,1.00000,1,  100.0,   197.000,    69.000,   1,1.0000,   0,1.0000,   0,1.0000,   0,1.0000,0, 1.0000
  213,'3 ',    90.186,    35.467,    80.000,     0.000,1.03752,    0,   100.000,   0.00000,   1.00000,   0.00000,   0.00000,1.00000,1,  100.0,   197.000,    69.000,   1,1.0000,   0,1.0000,   0,1.0000,   0,1.0000,0, 1.0000
  214,'1 ',     0.000,   105.200,   200.000,   -50.000,1.04335,    0,   100.000,   0.00000,   1.00000,   0.00000,   0.00000,1.00000,1,  100.0,     0.000,     0.000,   1,1.0000,   0,1.0000,   0,1.0000,   0,1.0000,0, 1.0000
  215,'1 ',     2.400,     6.000,     6.000,     0.000,1.04327,    0,   100.000,   0.00000,   1.00000,   0.00000,   0.00000,1.00000,1,  100.0,    12.000,     2.400,   1,1.0000,   0,1.0000,   0,1.0000,   0,1.0000,0, 1.0000
  215,'2 ',     2.400,     6.000,     6.000,     0.000,1.04327,    0,   100.000,   0.00000,   1.00000,   0.00000,   0.00000,1.00000,1,  100.0,    12.000,     2.400,   1,1.0000,   0,1.0000,   0,1.0000,   0,1.0000,0, 1.0000
  215,'3 ',     2.400,     6.000,     6.000,     0.000,1.04327,    0,   100.000,   0.00000,   1.00000,   0.00000,   0.00000,1.00000,1,  100.0,    12.000,     2.400,   1,1.0000,   0,1.0000,   0,1.0000,   0,1.0000,0, 1.0000
  215,'4 ',     2.400,     6.000,     6.000,     0.000,1.04327,    0,   100.000,   0.00000,   1.00000,   0.00000,   0.00000,1.00000,1,  100.0,    12.000,     2.400,   1,1.0000,   0,1.0000,   0,1.0000,   0,1.0000,0, 1.0000
  215,'5 ',     2.400,     6.000,     6.000,     0.000,1.04327,    0,   100.000,   0.00000,   1.00000,   0.00000,   0.00000,1.00000,1,  100.0,    12.000,     2.400,   1,1.0000,   0,1.0000,   0,1.0000,   0,1.0000,0, 1.0000
  215,'6 ',   155.000,    80.000,    80.000,   -50.000,1.04327,    0,   100.000,   0.00000,   1.00000,   0.00000,   0.00000,1.00000,1,  100.0,   155.000,    54.300,   1,1.0000,   0,1.0000,   0,1.0000,   0,1.0000,0, 1.0000
  216,'1 ',   155.000,    80.000,    80.000,   -50.000,1.04556,    0,   100.000,   0.00000,   1.00000,   0.00000,   0.00000,1.00000,1,  100.0,   155.000,    54.300,   1,1.0000,   0,1.0000,   0,1.0000,   0,1.0000,0, 1.0000
  218,'1 ',   400.000,    61.795,   200.000,   -50.000,1.05000,    0,   100.000,   0.00000,   1.00000,   0.00000,   0.00000,1.00000,1,  100.0,   400.000,   100.000,   1,1.0000,   0,1.0000,   0,1.0000,   0,1.0000,0, 1.0000
  221,'1 ',   400.000,    -9.833,   200.000,   -50.000,1.05000,    0,   100.000,   0.00000,   1.00000,   0.00000,   0.00000,1.00000,1,  100.0,   400.000,   100.000,   1,1.0000,   0,1.0000,   0,1.0000,   0,1.0000,0, 1.0000
  222,'1 ',    50.000,    -6.797,    16.000,   -10.000,1.05000,    0,   100.000,   0.00000,   1.00000,   0.00000,   0.00000,1.00000,1,  100.0,    50.000,    10.000,   1,1.0000,   0,1.0000,   0,1.0000,   0,1.0000,0, 1.0000
  222,'2 ',    50.000,    -6.797,    16.000,   -10.000,1.05000,    0,   100.000,   0.00000,   1.00000,   0.00000,   0.00000,1.00000,1,  100.0,    50.000,    10.000,   1,1.0000,   0,1.0000,   0,1.0000,   0,1.0000,0, 1.0000
  222,'3 ',    50.000,    -6.797,    16.000,   -10.000,1.05000,    0,   100.000,   0.00000,   1.00000,   0.00000,   0.00000,1.00000,1,  100.0,    50.000,    10.000,   1,1.0000,   0,1.0000,   0,1.0000,   0,1.0000,0, 1.0000
  222,'4 ',    50.000,    -6.797,    16.000,   -10.000,1.05000,    0,   100.000,   0.00000,   1.00000,   0.00000,   0.00000,1.00000,1,  100.0,    50.000,    10.000,   1,1.0000,   0,1.0000,   0,1.0000,   0,1.0000,0, 1.0000
  222,'5 ',    50.000,    -6.797,    16.000,   -10.000,1.05000,    0,   100.000,   0.00000,   1.00000,   0.00000,   0.00000,1.00000,1,  100.0,    50.000,    10.000,   1,1.0000,   0,1.0000,   0,1.0000,   0,1.0000,0, 1.0000
  222,'6 ',    50.000,    -6.797,    16.000,   -10.000,1.05000,    0,   100.000,   0.00000,   1.00000,   0.00000,   0.00000,1.00000,1,  100.0,    50.000,    10.000,   1,1.0000,   0,1.0000,   0,1.0000,   0,1.0000,0, 1.0000
  223,'1 ',   155.000,     0.031,    80.000,   -50.000,1.05000,    0,   100.000,   0.00000,   1.00000,   0.00000,   0.00000,1.00000,1,  100.0,   155.000,    54.300,   1,1.0000,   0,1.0000,   0,1.0000,   0,1.0000,0, 1.0000
  223,'2 ',   155.000,     0.031,    80.000,   -50.000,1.05000,    0,   100.000,   0.00000,   1.00000,   0.00000,   0.00000,1.00000,1,  100.0,   155.000,    54.300,   1,1.0000,   0,1.0000,   0,1.0000,   0,1.0000,0, 1.0000
  223,'3 ',   350.000,    36.398,   150.000,   -25.000,1.05000,    0,   100.000,   0.00000,   1.00000,   0.00000,   0.00000,1.00000,1,  100.0,   350.000,   140.000,   1,1.0000,   0,1.0000,   0,1.0000,   0,1.0000,0, 1.0000
  301,'1 ',    16.000,     4.902,    10.000,     0.000,1.04860,    0,   100.000,   0.00000,   1.00000,   0.00000,   0.00000,1.00000,1,  100.0,    20.000,    16.000,   1,1.0000,   0,1.0000,   0,1.0000,   0,1.0000,0, 1.0000
  301,'2 ',    16.000,     4.902,    10.000,     0.000,1.04860,    0,   100.000,   0.00000,   1.00000,   0.00000,   0.00000,1.00000,1,  100.0,    20.000,    16.000,   1,1.0000,   0,1.0000,   0,1.0000,   0,1.0000,0, 1.0000
  301,'3 ',    76.000,    -0.426,    30.000,   -25.000,1.04860,    0,   100.000,   0.00000,   1.00000,   0.00000,   0.00000,1.00000,1,  100.0,    76.000,    15.200,   1,1.0000,   0,1.0000,   0,1.0000,   0,1.0000,0, 1.0000
  301,'4 ',    76.000,    -0.426,    30.000,   -25.000,1.04860,    0,   100.000,   0.00000,   1.00000,   0.00000,   0.00000,1.00000,1,  100.0,    76.000,    15.200,   1,1.0000,   0,1.0000,   0,1.0000,   0,1.0000,0, 1.0000
  302,'1 ',    16.000,     4.833,    10.000,     0.000,1.04864,    0,   100.000,   0.00000,   1.00000,   0.00000,   0.00000,1.00000,1,  100.0,    20.000,    16.000,   1,1.0000,   0,1.0000,   0,1.0000,   0,1.0000,0, 1.0000
  302,'2 ',    16.000,     4.833,    10.000,     0.000,1.04864,    0,   100.000,   0.00000,   1.00000,   0.00000,   0.00000,1.00000,1,  100.0,    20.000,    16.000,   1,1.0000,   0,1.0000,   0,1.0000,   0,1.0000,0, 1.0000
  302,'3 ',    76.000,    -2.394,    30.000,   -25.000,1.04864,    0,   100.000,   0.00000,   1.00000,   0.00000,   0.00000,1.00000,1,  100.0,    76.000,    15.200,   1,1.0000,   0,1.0000,   0,1.0000,   0,1.0000,0, 1.0000
  302,'4 ',    76.000,    -2.394,    30.000,   -25.000,1.04864,    0,   100.000,   0.00000,   1.00000,   0.00000,   0.00000,1.00000,1,  100.0,    76.000,    15.200,   1,1.0000,   0,1.0000,   0,1.0000,   0,1.0000,0, 1.0000
  307,'1 ',    70.297,    16.714,    60.000,     0.000,1.03804,    0,   100.000,   0.00000,   1.00000,   0.00000,   0.00000,1.00000,1,  100.0,   100.000,    25.000,   1,1.0000,   0,1.0000,   0,1.0000,   0,1.0000,0, 1.0000
  307,'2 ',    70.297,    16.714,    60.000,     0.000,1.03804,    0,   100.000,   0.00000,   1.00000,   0.00000,   0.00000,1.00000,1,  100.0,   100.000,    25.000,   1,1.0000,   0,1.0000,   0,1.0000,   0,1.0000,0, 1.0000
  307,'3 ',    70.297,    16.714,    60.000,     0.000,1.03804,    0,   100.000,   0.00000,   1.00000,   0.00000,   0.00000,1.00000,1,  100.0,   100.000,    25.000,   1,1.0000,   0,1.0000,   0,1.0000,   0,1.0000,0, 1.0000
  313,'1 ',    76.947,    37.941,    80.000,     0.000,1.03802,    0,   100.000,   0.00000,   1.00000,   0.00000,   0.00000,1.00000,1,  100.0,   197.000,    69.000,   1,1.0000,   0,1.0000,   0,1.0000,   0,1.0000,0, 1.0000
  313,'2 ',    76.947,    37.941,    80.000,     0.000,1.03802,    0,   100.000,   0.00000,   1.00000,   0.00000,   0.00000,1.00000,1,  100.0,   197.000,    69.000,   1,1.0000,   0,1.0000,   0,1.0000,   0,1.0000,0, 1.0000
  313,'3 ',    76.947,    37.941,    80.000,     0.000,1.03802,    0,   100.000,   0.00000,   1.00000,   0.00000,   0.00000,1.00000,1,  100.0,   197.000,    69.000,   1,1.0000,   0,1.0000,   0,1.0000,   0,1.0000,0, 1.0000
  314,'1 ',     0.000,   117.870,   200.000,   -50.000,1.04631,    0,   100.000,   0.00000,   1.00000,   0.00000,   0.00000,1.00000,1,  100.0,     0.000,     0.000,   1,1.0000,   0,1.0000,   0,1.0000,   0,1.0000,0, 1.0000
  315,'1 ',     2.400,     6.000,     6.000,     0.000,1.04300,    0,   100.000,   0.00000,   1.00000,   0.00000,   0.00000,1.00000,1,  100.0,    12.000,     2.400,   1,1.0000,   0,1.0000,   0,1.0000,   0,1.0000,0, 1.0000
  315,'2 ',     2.400,     6.000,     6.000,     0.000,1.04300,    0,   100.000,   0.00000,   1.00000,   0.00000,   0.00000,1.00000,1,  100.0,    12.000,     2.400,   1,1.0000,   0,1.0000,   0,1.0000,   0,1.0000,0, 1.0000
  315,'3 ',     2.400,     6.000,     6.000,     0.000,1.04300,    0,   100.000,   0.00000,   1.00000,   0.00000,   0.00000,1.00000,1,  100.0,    12.000,     2.400,   1,1.0000,   0,1.0000,   0,1.0000,   0,1.0000,0, 1.0000
  315,'4 ',     2.400,     6.000,     6.000,     0.000,1.04300,    0,   100.000,   0.00000,   1.00000,   0.00000,   0.00000,1.00000,1,  100.0,    12.000,     2.400,   1,1.0000,   0,1.0000,   0,1.0000,   0,1.0000,0, 1.0000
  315,'5 ',     2.400,     6.000,     6.000,     0.000,1.04300,    0,   100.000,   0.00000,   1.00000,   0.00000,   0.00000,1.00000,1,  100.0,    12.000,     2.400,   1,1.0000,   0,1.0000,   0,1.0000,   0,1.0000,0, 1.0000
  315,'6 ',   155.000,    80.000,    80.000,   -50.000,1.04300,    0,   100.000,   0.00000,   1.00000,   0.00000,   0.00000,1.00000,1,  100.0,   155.000,    54.300,   1,1.0000,   0,1.0000,   0,1.0000,   0,1.0000,0, 1.0000
  316,'1 ',   155.000,    80.000,    80.000,   -50.000,1.04558,    0,   100.000,   0.00000,   1.00000,   0.00000,   0.00000,1.00000,1,  100.0,   155.000,    54.300,   1,1.0000,   0,1.0000,   0,1.0000,   0,1.0000,0, 1.0000
  318,'1 ',   400.000,    57.471,   200.000,   -50.000,1.05000,    0,   100.000,   0.00000,   1.00000,   0.00000,   0.00000,1.00000,1,  100.0,   400.000,   100.000,   1,1.0000,   0,1.0000,   0,1.0000,   0,1.0000,0, 1.0000
  321,'1 ',   400.000,   -13.198,   200.000,   -50.000,1.05000,    0,   100.000,   0.00000,   1.00000,   0.00000,   0.00000,1.00000,1,  100.0,   400.000,   100.000,   1,1.0000,   0,1.0000,   0,1.0000,   0,1.0000,0, 1.0000
  322,'1 ',    50.000,    -6.683,    16.000,   -10.000,1.05000,    0,   100.000,   0.00000,   1.00000,   0.00000,   0.00000,1.00000,1,  100.0,    50.000,    10.000,   1,1.0000,   0,1.0000,   0,1.0000,   0,1.0000,0, 1.0000
  322,'2 ',    50.000,    -6.683,    16.000,   -10.000,1.05000,    0,   100.000,   0.00000,   1.00000,   0.00000,   0.00000,1.00000,1,  100.0,    50.000,    10.000,   1,1.0000,   0,1.0000,   0,1.0000,   0,1.0000,0, 1.0000
  322,'3 ',    50.000,    -6.683,    16.000,   -10.000,1.05000,    0,   100.000,   0.00000,   1.00000,   0.00000,   0.00000,1.00000,1,  100.0,    50.000,    10.000,   1,1.0000,   0,1.0000,   0,1.0000,   0,1.0000,0, 1.0000
  322,'4 ',    50.000,    -6.683,    16.000,   -10.000,1.05000,    0,   100.000,   0.00000,   1.00000,   0.00000,   0.00000,1.00000,1,  100.0,    50.000,    10.000,   1,1.0000,   0,1.0000,   0,1.0000,   0,1.0000,0, 1.0000
  322,'5 ',    50.000,    -6.683,    16.000,   -10.000,1.05000,    0,   100.000,   0.00000,   1.00000,   0.00000,   0.00000,1.00000,1,  100.0,    50.000,    10.000,   1,1.0000,   0,1.0000,   0,1.0000,   0,1.0000,0, 1.0000
  322,'6 ',    50.000,    -6.683,    16.000,   -10.000,1.05000,    0,   100.000,   0.00000,   1.00000,   0.00000,   0.00000,1.00000,1,  100.0,    50.000,    10.000,   1,1.0000,   0,1.0000,   0,1.0000,   0,1.0000,0, 1.0000
  323,'1 ',   155.000,     1.047,    80.000,   -50.000,1.05000,    0,   100.000,   0.00000,   1.00000,   0.00000,   0.00000,1.00000,1,  100.0,   155.000,    54.300,   1,1.0000,   0,1.0000,   0,1.0000,   0,1.0000,0, 1.0000
  323,'2 ',   155.000,     1.047,    80.000,   -50.000,1.05000,    0,   100.000,   0.00000,   1.00000,   0.00000,   0.00000,1.00000,1,  100.0,   155.000,    54.300,   1,1.0000,   0,1.0000,   0,1.0000,   0,1.0000,0, 1.0000
  323,'3 ',   350.000,    38.057,   150.000,   -25.000,1.05000,    0,   100.000,   0.00000,   1.00000,   0.00000,   0.00000,1.00000,1,  100.0,   350.000,   140.000,   1,1.0000,   0,1.0000,   0,1.0000,   0,1.0000,0, 1.0000
0 / END OF GENERATOR DATA, BEGIN BRANCH DATA
   101,   102,'1 ',3.00000E-3,1.40000E-2,4.61000E-1, 175.00, 193.00, 200.00,  0.00000,  0.00000,  0.00000,  0.00000,1,1,   0.0,   1,1.0000,   0,1.0000,   0,1.0000,   0,1.0000
   101,   103,'1 ',5.50000E-2,2.11000E-1,5.70000E-2, 175.00, 208.00, 220.00,  0.00000,  0.00000,  0.00000,  0.00000,1,1,   0.0,   1,1.0000,   0,1.0000,   0,1.0000,   0,1.0000
   101,   105,'1 ',2.20000E-2,8.50000E-2,2.30000E-2, 175.00, 208.00, 220.00,  0.00000,  0.00000,  0.00000,  0.00000,1,1,   0.0,   1,1.0000,   0,1.0000,   0,1.0000,   0,1.0000
   102,   104,'1 ',3.30000E-2,1.27000E-1,3.40000E-2, 175.00, 208.00, 220.00,  0.00000,  0.00000,  0.00000,  0.00000,1,1,   0.0,   1,1.0000,   0,1.0000,   0,1.0000,   0,1.0000
   102,   106,'1 ',5.00000E-2,1.92000E-1,5.20000E-2, 175.00, 208.00, 220.00,  0.00000,  0.00000,  0.00000,  0.00000,1,1,   0.0,   1,1.0000,   0,1.0000,   0,1.0000,   0,1.0000
   103,   109,'1 ',3.10000E-2,1.19000E-1,3.20000E-2, 175.00, 208.00, 220.00,  0.00000,  0.00000,  0.00000,  0.00000,1,1,   0.0,   1,1.0000,   0,1.0000,   0,1.0000,   0,1.0000
   104,   109,'1 ',2.70000E-2,1.04000E-1,2.80000E-2, 175.00, 208.00, 220.00,  0.00000,  0.00000,  0.00000,  0.00000,1,1,   0.0,   1,1.0000,   0,1.0000,   0,1.0000,   0,1.0000
   105,   110,'1 ',2.30000E-2,8.80000E-2,2.40000E-2, 175.00, 208.00, 220.00,  0.00000,  0.00000,  0.00000,  0.00000,1,1,   0.0,   1,1.0000,   0,1.0000,   0,1.0000,   0,1.0000
   106,   110,'1 ',1.40000E-2,6.10000E-2,2.45900E0, 175.00, 193.00, 200.00,  0.00000,  0.00000,  0.00000,  0.00000,1,1,   0.0,   1,1.0000,   0,1.0000,   0,1.0000,   0,1.0000
   107,   108,'1 ',1.60000E-2,6.10000E-2,1.70000E-2, 175.00, 208.00, 220.00,  0.00000,  0.00000,  0.00000,  0.00000,1,1,   0.0,   1,1.0000,   0,1.0000,   0,1.0000,   0,1.0000
   107,   203,'1 ',4.20000E-2,1.61000E-1,4.40000E-2, 175.00, 208.00, 220.00,  0.00000,  0.00000,  0.00000,  0.00000,1,1,   0.0,   1,1.0000,   0,1.0000,   0,1.0000,   0,1.0000
   108,   109,'1 ',4.30000E-2,1.65000E-1,4.50000E-2, 175.00, 208.00, 220.00,  0.00000,  0.00000,  0.00000,  0.00000,1,1,   0.0,   1,1.0000,   0,1.0000,   0,1.0000,   0,1.0000
   108,   110,'1 ',4.30000E-2,1.65000E-1,4.50000E-2, 175.00, 208.00, 220.00,  0.00000,  0.00000,  0.00000,  0.00000,1,1,   0.0,   1,1.0000,   0,1.0000,   0,1.0000,   0,1.0000
   111,   113,'1 ',6.00000E-3,4.80000E-2,1.00000E-1, 500.00, 600.00, 625.00,  0.00000,  0.00000,  0.00000,  0.00000,1,1,   0.0,   1,1.0000,   0,1.0000,   0,1.0000,   0,1.0000
   111,   114,'1 ',5.00000E-3,4.20000E-2,8.80000E-2, 500.00, 600.00, 625.00,  0.00000,  0.00000,  0.00000,  0.00000,1,1,   0.0,   1,1.0000,   0,1.0000,   0,1.0000,   0,1.0000
   112,   113,'1 ',6.00000E-3,4.80000E-2,1.00000E-1, 500.00, 600.00, 625.00,  0.00000,  0.00000,  0.00000,  0.00000,1,1,   0.0,   1,1.0000,   0,1.0000,   0,1.0000,   0,1.0000
   112,   123,'1 ',1.20000E-2,9.70000E-2,2.03000E-1, 500.00, 600.00, 625.00,  0.00000,  0.00000,  0.00000,  0.00000,1,1,   0.0,   1,1.0000,   0,1.0000,   0,1.0000,   0,1.0000
   113,   123,'1 ',1.10000E-2,8.70000E-2,1.82000E-1, 500.00, 600.00, 625.00,  0.00000,  0.00000,  0.00000,  0.00000,1,1,   0.0,   1,1.0000,   0,1.0000,   0,1.0000,   0,1.0000
   113,   215,'1 ',1.00000E-2,7.50000E-2,1.58000E-1, 500.00, 600.00, 625.00,  0.00000,  0.00000,  0.00000,  0.00000,1,1,   0.0,   1,1.0000,   0,1.0000,   0,1.0000,   0,1.0000
   114,   116,'1 ',5.00000E-3,5.90000E-2,8.20000E-2, 500.00, 600.00, 625.00,  0.00000,  0.00000,  0.00000,  0.00000,1,1,   0.0,   1,1.0000,   0,1.0000,   0,1.0000,   0,1.0000
   115,   116,'1 ',2.00000E-3,1.70000E-2,3.60000E-2, 500.00, 600.00, 625.00,  0.00000,  0.00000,  0.00000,  0.00000,1,1,   0.0,   1,1.0000,   0,1.0000,   0,1.0000,   0,1.0000
   115,   121,'1 ',6.00000E-3,4.90000E-2,1.03000E-1, 500.00, 600.00, 625.00,  0.00000,  0.00000,  0.00000,  0.00000,1,1,   0.0,   1,1.0000,   0,1.0000,   0,1.0000,   0,1.0000
   115,   121,'2 ',6.00000E-3,4.90000E-2,1.03000E-1, 500.00, 600.00, 625.00,  0.00000,  0.00000,  0.00000,  0.00000,1,1,   0.0,   1,1.0000,   0,1.0000,   0,1.0000,   0,1.0000
   115,   124,'1 ',7.00000E-3,5.20000E-2,1.09000E-1, 500.00, 600.00, 625.00,  0.00000,  0.00000,  0.00000,  0.00000,1,1,   0.0,   1,1.0000,   0,1.0000,   0,1.0000,   0,1.0000
   116,   117,'1 ',3.00000E-3,2.60000E-2,5.50000E-2, 500.00, 600.00, 625.00,  0.00000,  0.00000,  0.00000,  0.00000,1,1,   0.0,   1,1.0000,   0,1.0000,   0,1.0000,   0,1.0000
   116,   119,'1 ',3.00000E-3,2.30000E-2,4.90000E-2, 500.00, 600.00, 625.00,  0.00000,  0.00000,  0.00000,  0.00000,1,1,   0.0,   1,1.0000,   0,1.0000,   0,1.0000,   0,1.0000
   117,   118,'1 ',2.00000E-3,1.40000E-2,3.00000E-2, 500.00, 600.00, 625.00,  0.00000,  0.00000,  0.00000,  0.00000,1,1,   0.0,   1,1.0000,   0,1.0000,   0,1.0000,   0,1.0000
   117,   122,'1 ',1.40000E-2,1.05000E-1,2.21000E-1, 500.00, 600.00, 625.00,  0.00000,  0.00000,  0.00000,  0.00000,1,1,   0.0,   1,1.0000,   0,1.0000,   0,1.0000,   0,1.0000
   118,   121,'1 ',3.00000E-3,2.60000E-2,5.50000E-2, 500.00, 600.00, 625.00,  0.00000,  0.00000,  0.00000,  0.00000,1,1,   0.0,   1,1.0000,   0,1.0000,   0,1.0000,   0,1.0000
   118,   121,'2 ',3.00000E-3,2.60000E-2,5.50000E-2, 500.00, 600.00, 625.00,  0.00000,  0.00000,  0.00000,  0.00000,1,1,   0.0,   1,1.0000,   0,1.0000,   0,1.0000,   0,1.0000
   119,   120,'1 ',5.00000E-3,4.00000E-2,8.30000E-2, 500.00, 600.00, 625.00,  0.00000,  0.00000,  0.00000,  0.00000,1,1,   0.0,   1,1.0000,   0,1.0000,   0,1.0000,   0,1.0000
   119,   120,'2 ',5.00000E-3,4.00000E-2,8.30000E-2, 500.00, 600.00, 625.00,  0.00000,  0.00000,  0.00000,  0.00000,1,1,   0.0,   1,1.0000,   0,1.0000,   0,1.0000,   0,1.0000
   120,   123,'1 ',3.00000E-3,2.20000E-2,4.60000E-2, 500.00, 600.00, 625.00,  0.00000,  0.00000,  0.00000,  0.00000,1,1,   0.0,   1,1.0000,   0,1.0000,   0,1.0000,   0,1.0000
   120,   123,'2 ',3.00000E-3,2.20000E-2,4.60000E-2, 500.00, 600.00, 625.00,  0.00000,  0.00000,  0.00000,  0.00000,1,1,   0.0,   1,1.0000,   0,1.0000,   0,1.0000,   0,1.0000
   121,   122,'1 ',9.00000E-3,6.80000E-2,1.42000E-1, 500.00, 600.00, 625.00,  0.00000,  0.00000,  0.00000,  0.00000,1,1,   0.0,   1,1.0000,   0,1.0000,   0,1.0000,   0,1.0000
   325,   121,'1 ',1.20000E-2,9.70000E-2,2.03000E-1, 500.00, 600.00, 625.00,  0.00000,  0.00000,  0.00000,  0.00000,1,1,   0.0,   1,1.0000,   0,1.0000,   0,1.0000,   0,1.0000
   123,   217,'1 ',1.00000E-2,7.40000E-2,1.55000E-1, 500.00, 600.00, 625.00,  0.00000,  0.00000,  0.00000,  0.00000,1,1,   0.0,   1,1.0000,   0,1.0000,   0,1.0000,   0,1.0000
   201,   202,'1 ',3.00000E-3,1.40000E-2,4.61000E-1, 175.00, 193.00, 200.00,  0.00000,  0.00000,  0.00000,  0.00000,1,1,   0.0,   1,1.0000,   0,1.0000,   0,1.0000,   0,1.0000
   201,   203,'1 ',5.50000E-2,2.11000E-1,5.70000E-2, 175.00, 208.00, 220.00,  0.00000,  0.00000,  0.00000,  0.00000,1,1,   0.0,   1,1.0000,   0,1.0000,   0,1.0000,   0,1.0000
   201,   205,'1 ',2.20000E-2,8.50000E-2,2.30000E-2, 175.00, 208.00, 220.00,  0.00000,  0.00000,  0.00000,  0.00000,1,1,   0.0,   1,1.0000,   0,1.0000,   0,1.0000,   0,1.0000
   202,   204,'1 ',3.30000E-2,1.27000E-1,3.40000E-2, 175.00, 208.00, 220.00,  0.00000,  0.00000,  0.00000,  0.00000,1,1,   0.0,   1,1.0000,   0,1.0000,   0,1.0000,   0,1.0000
   202,   206,'1 ',5.00000E-2,1.92000E-1,5.20000E-2, 175.00, 208.00, 220.00,  0.00000,  0.00000,  0.00000,  0.00000,1,1,   0.0,   1,1.0000,   0,1.0000,   0,1.0000,   0,1.0000
   203,   209,'1 ',3.10000E-2,1.19000E-1,3.20000E-2, 175.00, 208.00, 220.00,  0.00000,  0.00000,  0.00000,  0.00000,1,1,   0.0,   1,1.0000,   0,1.0000,   0,1.0000,   0,1.0000
   204,   209,'1 ',2.70000E-2,1.04000E-1,2.80000E-2, 175.00, 208.00, 220.00,  0.00000,  0.00000,  0.00000,  0.00000,1,1,   0.0,   1,1.0000,   0,1.0000,   0,1.0000,   0,1.0000
   205,   210,'1 ',2.30000E-2,8.80000E-2,2.40000E-2, 175.00, 208.00, 220.00,  0.00000,  0.00000,  0.00000,  0.00000,1,1,   0.0,   1,1.0000,   0,1.0000,   0,1.0000,   0,1.0000
   206,   210,'1 ',1.40000E-2,6.10000E-2,2.45900E0, 175.00, 193.00, 200.00,  0.00000,  0.00000,  0.00000,  0.00000,1,1,   0.0,   1,1.0000,   0,1.0000,   0,1.0000,   0,1.0000
   207,   208,'1 ',1.60000E-2,6.10000E-2,1.70000E-2, 175.00, 208.00, 220.00,  0.00000,  0.00000,  0.00000,  0.00000,1,1,   0.0,   1,1.0000,   0,1.0000,   0,1.0000,   0,1.0000
   208,   209,'1 ',4.30000E-2,1.65000E-1,4.50000E-2, 175.00, 208.00, 220.00,  0.00000,  0.00000,  0.00000,  0.00000,1,1,   0.0,   1,1.0000,   0,1.0000,   0,1.0000,   0,1.0000
   208,   210,'1 ',4.30000E-2,1.65000E-1,4.50000E-2, 175.00, 208.00, 220.00,  0.00000,  0.00000,  0.00000,  0.00000,1,1,   0.0,   1,1.0000,   0,1.0000,   0,1.0000,   0,1.0000
   211,   213,'1 ',6.00000E-3,4.80000E-2,1.00000E-1, 500.00, 600.00, 625.00,  0.00000,  0.00000,  0.00000,  0.00000,1,1,   0.0,   1,1.0000,   0,1.0000,   0,1.0000,   0,1.0000
   211,   214,'1 ',5.00000E-3,4.20000E-2,8.80000E-2, 500.00, 600.00, 625.00,  0.00000,  0.00000,  0.00000,  0.00000,1,1,   0.0,   1,1.0000,   0,1.0000,   0,1.0000,   0,1.0000
   212,   213,'1 ',6.00000E-3,4.80000E-2,1.00000E-1, 500.00, 600.00, 625.00,  0.00000,  0.00000,  0.00000,  0.00000,1,1,   0.0,   1,1.0000,   0,1.0000,   0,1.0000,   0,1.0000
   212,   223,'1 ',1.20000E-2,9.70000E-2,2.03000E-1, 500.00, 600.00, 625.00,  0.00000,  0.00000,  0.00000,  0.00000,1,1,   0.0,   1,1.0000,   0,1.0000,   0,1.0000,   0,1.0000
   213,   223,'1 ',1.10000E-2,8.70000E-2,1.82000E-1, 500.00, 600.00, 625.00,  0.00000,  0.00000,  0.00000,  0.00000,1,1,   0.0,   1,1.0000,   0,1.0000,   0,1.0000,   0,1.0000
   214,   216,'1 ',5.00000E-3,5.90000E-2,8.20000E-2, 500.00, 600.00, 625.00,  0.00000,  0.00000,  0.00000,  0.00000,1,1,   0.0,   1,1.0000,   0,1.0000,   0,1.0000,   0,1.0000
   215,   216,'1 ',2.00000E-3,1.70000E-2,3.60000E-2, 500.00, 600.00, 625.00,  0.00000,  0.00000,  0.00000,  0.00000,1,1,   0.0,   1,1.0000,   0,1.0000,   0,1.0000,   0,1.0000
   215,   221,'1 ',6.00000E-3,4.90000E-2,1.03000E-1, 500.00, 600.00, 625.00,  0.00000,  0.00000,  0.00000,  0.00000,1,1,   0.0,   1,1.0000,   0,1.0000,   0,1.0000,   0,1.0000
   215,   221,'2 ',6.00000E-3,4.90000E-2,1.03000E-1, 500.00, 600.00, 625.00,  0.00000,  0.00000,  0.00000,  0.00000,1,1,   0.0,   1,1.0000,   0,1.0000,   0,1.0000,   0,1.0000
   215,   224,'1 ',7.00000E-3,5.20000E-2,1.09000E-1, 500.00, 600.00, 625.00,  0.00000,  0.00000,  0.00000,  0.00000,1,1,   0.0,   1,1.0000,   0,1.0000,   0,1.0000,   0,1.0000
   216,   217,'1 ',3.00000E-3,2.60000E-2,5.50000E-2, 500.00, 600.00, 625.00,  0.00000,  0.00000,  0.00000,  0.00000,1,1,   0.0,   1,1.0000,   0,1.0000,   0,1.0000,   0,1.0000
   216,   219,'1 ',3.00000E-3,2.30000E-2,4.90000E-2, 500.00, 600.00, 625.00,  0.00000,  0.00000,  0.00000,  0.00000,1,1,   0.0,   1,1.0000,   0,1.0000,   0,1.0000,   0,1.0000
   217,   218,'1 ',2.00000E-3,1.40000E-2,3.00000E-2, 500.00, 600.00, 625.00,  0.00000,  0.00000,  0.00000,  0.00000,1,1,   0.0,   1,1.0000,   0,1.0000,   0,1.0000,   0,1.0000
   217,   222,'1 ',1.40000E-2,1.05000E-1,2.21000E-1, 500.00, 600.00, 625.00,  0.00000,  0.00000,  0.00000,  0.00000,1,1,   0.0,   1,1.0000,   0,1.0000,   0,1.0000,   0,1.0000
   218,   221,'1 ',3.00000E-3,2.60000E-2,5.50000E-2, 500.00, 600.00, 625.00,  0.00000,  0.00000,  0.00000,  0.00000,1,1,   0.0,   1,1.0000,   0,1.0000,   0,1.0000,   0,1.0000
   218,   221,'2 ',3.00000E-3,2.60000E-2,5.50000E-2, 500.00, 600.00, 625.00,  0.00000,  0.00000,  0.00000,  0.00000,1,1,   0.0,   1,1.0000,   0,1.0000,   0,1.0000,   0,1.0000
   219,   220,'1 ',5.00000E-3,4.00000E-2,8.30000E-2, 500.00, 600.00, 625.00,  0.00000,  0.00000,  0.00000,  0.00000,1,1,   0.0,   1,1.0000,   0,1.0000,   0,1.0000,   0,1.0000
   219,   220,'2 ',5.00000E-3,4.00000E-2,8.30000E-2, 500.00, 600.00, 625.00,  0.00000,  0.00000,  0.00000,  0.00000,1,1,   0.0,   1,1.0000,   0,1.0000,   0,1.0000,   0,1.0000
   220,   223,'1 ',3.00000E-3,2.20000E-2,4.60000E-2, 500.00, 600.00, 625.00,  0.00000,  0.00000,  0.00000,  0.00000,1,1,   0.0,   1,1.0000,   0,1.0000,   0,1.0000,   0,1.0000
   220,   223,'2 ',3.00000E-3,2.20000E-2,4.60000E-2, 500.00, 600.00, 625.00,  0.00000,  0.00000,  0.00000,  0.00000,1,1,   0.0,   1,1.0000,   0,1.0000,   0,1.0000,   0,1.0000
   221,   222,'1 ',9.00000E-3,6.80000E-2,1.42000E-1, 500.00, 600.00, 625.00,  0.00000,  0.00000,  0.00000,  0.00000,1,1,   0.0,   1,1.0000,   0,1.0000,   0,1.0000,   0,1.0000
   318,   223,'1 ',1.30000E-2,1.04000E-1,2.18000E-1, 500.00, 600.00, 625.00,  0.00000,  0.00000,  0.00000,  0.00000,1,1,   0.0,   1,1.0000,   0,1.0000,   0,1.0000,   0,1.0000
   301,   302,'1 ',3.00000E-3,1.40000E-2,4.61000E-1, 175.00, 193.00, 200.00,  0.00000,  0.00000,  0.00000,  0.00000,1,1,   0.0,   1,1.0000,   0,1.0000,   0,1.0000,   0,1.0000
   301,   303,'1 ',5.50000E-2,2.11000E-1,5.70000E-2, 175.00, 208.00, 220.00,  0.00000,  0.00000,  0.00000,  0.00000,1,1,   0.0,   1,1.0000,   0,1.0000,   0,1.0000,   0,1.0000
   301,   305,'1 ',2.20000E-2,8.50000E-2,2.30000E-2, 175.00, 208.00, 220.00,  0.00000,  0.00000,  0.00000,  0.00000,1,1,   0.0,   1,1.0000,   0,1.0000,   0,1.0000,   0,1.0000
   302,   304,'1 ',3.30000E-2,1.27000E-1,3.40000E-2, 175.00, 208.00, 220.00,  0.00000,  0.00000,  0.00000,  0.00000,1,1,   0.0,   1,1.0000,   0,1.0000,   0,1.0000,   0,1.0000
   302,   306,'1 ',5.00000E-2,1.92000E-1,5.20000E-2, 175.00, 208.00, 220.00,  0.00000,  0.00000,  0.00000,  0.00000,1,1,   0.0,   1,1.0000,   0,1.0000,   0,1.0000,   0,1.0000
   303,   309,'1 ',3.10000E-2,1.19000E-1,3.20000E-2, 175.00, 208.00, 220.00,  0.00000,  0.00000,  0.00000,  0.00000,1,1,   0.0,   1,1.0000,   0,1.0000,   0,1.0000,   0,1.0000
   304,   309,'1 ',2.70000E-2,1.04000E-1,2.80000E-2, 175.00, 208.00, 220.00,  0.00000,  0.00000,  0.00000,  0.00000,1,1,   0.0,   1,1.0000,   0,1.0000,   0,1.0000,   0,1.0000
   305,   310,'1 ',2.30000E-2,8.80000E-2,2.40000E-2, 175.00, 208.00, 220.00,  0.00000,  0.00000,  0.00000,  0.00000,1,1,   0.0,   1,1.0000,   0,1.0000,   0,1.0000,   0,1.0000
   306,   310,'1 ',1.40000E-2,6.10000E-2,2.45900E0, 175.00, 193.00, 200.00,  0.00000,  0.00000,  0.00000,  0.00000,1,1,   0.0,   1,1.0000,   0,1.0000,   0,1.0000,   0,1.0000
   307,   308,'1 ',1.60000E-2,6.10000E-2,1.70000E-2, 175.00, 208.00, 220.00,  0.00000,  0.00000,  0.00000,  0.00000,1,1,   0.0,   1,1.0000,   0,1.0000,   0,1.0000,   0,1.0000
   308,   309,'1 ',4.30000E-2,1.65000E-1,4.50000E-2, 175.00, 208.00, 220.00,  0.00000,  0.00000,  0.00000,  0.00000,1,1,   0.0,   1,1.0000,   0,1.0000,   0,1.0000,   0,1.0000
   308,   310,'1 ',4.30000E-2,1.65000E-1,4.50000E-2, 175.00, 208.00, 220.00,  0.00000,  0.00000,  0.00000,  0.00000,1,1,   0.0,   1,1.0000,   0,1.0000,   0,1.0000,   0,1.0000
   311,   313,'1 ',6.00000E-3,4.80000E-2,1.00000E-1, 500.00, 600.00, 625.00,  0.00000,  0.00000,  0.00000,  0.00000,1,1,   0.0,   1,1.0000,   0,1.0000,   0,1.0000,   0,1.0000
   311,   314,'1 ',5.00000E-3,4.20000E-2,8.80000E-2, 500.00, 600.00, 625.00,  0.00000,  0.00000,  0.00000,  0.00000,1,1,   0.0,   1,1.0000,   0,1.0000,   0,1.0000,   0,1.0000
   312,   313,'1 ',6.00000E-3,4.80000E-2,1.00000E-1, 500.00, 600.00, 625.00,  0.00000,  0.00000,  0.00000,  0.00000,1,1,   0.0,   1,1.0000,   0,1.0000,   0,1.0000,   0,1.0000
   312,   323,'1 ',1.20000E-2,9.70000E-2,2.03000E-1, 500.00, 600.00, 625.00,  0.00000,  0.00000,  0.00000,  0.00000,1,1,   0.0,   1,1.0000,   0,1.0000,   0,1.0000,   0,1.0000
   313,   323,'1 ',1.10000E-2,8.70000E-2,1.82000E-1, 500.00, 600.00, 625.00,  0.00000,  0.00000,  0.00000,  0.00000,1,1,   0.0,   1,1.0000,   0,1.0000,   0,1.0000,   0,1.0000
   314,   316,'1 ',5.00000E-3,5.90000E-2,8.20000E-2, 500.00, 600.00, 625.00,  0.00000,  0.00000,  0.00000,  0.00000,1,1,   0.0,   1,1.0000,   0,1.0000,   0,1.0000,   0,1.0000
   315,   316,'1 ',2.00000E-3,1.70000E-2,3.60000E-2, 500.00, 600.00, 625.00,  0.00000,  0.00000,  0.00000,  0.00000,1,1,   0.0,   1,1.0000,   0,1.0000,   0,1.0000,   0,1.0000
   315,   321,'1 ',6.00000E-3,4.90000E-2,1.03000E-1, 500.00, 600.00, 625.00,  0.00000,  0.00000,  0.00000,  0.00000,1,1,   0.0,   1,1.0000,   0,1.0000,   0,1.0000,   0,1.0000
   315,   321,'2 ',6.00000E-3,4.90000E-2,1.03000E-1, 500.00, 600.00, 625.00,  0.00000,  0.00000,  0.00000,  0.00000,1,1,   0.0,   1,1.0000,   0,1.0000,   0,1.0000,   0,1.0000
   315,   324,'1 ',7.00000E-3,5.20000E-2,1.09000E-1, 500.00, 600.00, 625.00,  0.00000,  0.00000,  0.00000,  0.00000,1,1,   0.0,   1,1.0000,   0,1.0000,   0,1.0000,   0,1.0000
   316,   317,'1 ',3.00000E-3,2.60000E-2,5.50000E-2, 500.00, 600.00, 625.00,  0.00000,  0.00000,  0.00000,  0.00000,1,1,   0.0,   1,1.0000,   0,1.0000,   0,1.0000,   0,1.0000
   316,   319,'1 ',3.00000E-3,2.30000E-2,4.90000E-2, 500.00, 600.00, 625.00,  0.00000,  0.00000,  0.00000,  0.00000,1,1,   0.0,   1,1.0000,   0,1.0000,   0,1.0000,   0,1.0000
   317,   318,'1 ',2.00000E-3,1.40000E-2,3.00000E-2, 500.00, 600.00, 625.00,  0.00000,  0.00000,  0.00000,  0.00000,1,1,   0.0,   1,1.0000,   0,1.0000,   0,1.0000,   0,1.0000
   317,   322,'1 ',1.40000E-2,1.05000E-1,2.21000E-1, 500.00, 600.00, 625.00,  0.00000,  0.00000,  0.00000,  0.00000,1,1,   0.0,   1,1.0000,   0,1.0000,   0,1.0000,   0,1.0000
   318,   321,'1 ',3.00000E-3,2.60000E-2,5.50000E-2, 500.00, 600.00, 625.00,  0.00000,  0.00000,  0.00000,  0.00000,1,1,   0.0,   1,1.0000,   0,1.0000,   0,1.0000,   0,1.0000
   318,   321,'2 ',3.00000E-3,2.60000E-2,5.50000E-2, 500.00, 600.00, 625.00,  0.00000,  0.00000,  0.00000,  0.00000,1,1,   0.0,   1,1.0000,   0,1.0000,   0,1.0000,   0,1.0000
   319,   320,'1 ',5.00000E-3,4.00000E-2,8.30000E-2, 500.00, 600.00, 625.00,  0.00000,  0.00000,  0.00000,  0.00000,1,1,   0.0,   1,1.0000,   0,1.0000,   0,1.0000,   0,1.0000
   319,   320,'2 ',5.00000E-3,4.00000E-2,8.30000E-2, 500.00, 600.00, 625.00,  0.00000,  0.00000,  0.00000,  0.00000,1,1,   0.0,   1,1.0000,   0,1.0000,   0,1.0000,   0,1.0000
   320,   323,'1 ',3.00000E-3,2.20000E-2,4.60000E-2, 500.00, 600.00, 625.00,  0.00000,  0.00000,  0.00000,  0.00000,1,1,   0.0,   1,1.0000,   0,1.0000,   0,1.0000,   0,1.0000
   320,   323,'2 ',3.00000E-3,2.20000E-2,4.60000E-2, 500.00, 600.00, 625.00,  0.00000,  0.00000,  0.00000,  0.00000,1,1,   0.0,   1,1.0000,   0,1.0000,   0,1.0000,   0,1.0000
   321,   322,'1 ',9.00000E-3,6.80000E-2,1.42000E-1, 500.00, 600.00, 625.00,  0.00000,  0.00000,  0.00000,  0.00000,1,1,   0.0,   1,1.0000,   0,1.0000,   0,1.0000,   0,1.0000
   323,   325,'1 ',1.00000E-7,9.00000E-3,0.00000E0, 722.00, 893.00, 893.00,  0.00000,  0.00000,  0.00000,  0.00000,1,1,   0.0,   1,1.0000,   0,1.0000,   0,1.0000,   0,1.0000
0 / END OF BRANCH DATA, BEGIN TRANSFORMER DATA
   103,   124,    0,'1 ',1,1,1,0.00000E0,0.00000E0,2,'            ',1,   1,1.0000,   0,1.0000,   0,1.0000,   0,1.0000,'            '
2.00000E-3,8.40000E-2, 100.00
1.015000,138.000,   0.000, 400.00, 510.00, 600.00,-1,     0,1.500000,0.510000,1.500000,0.510000,159, 0, 0.00000, 0.00000,  0.000
1.000000,230.000
   109,   111,    0,'1 ',1,1,1,0.00000E0,0.00000E0,2,'            ',1,   1,1.0000,   0,1.0000,   0,1.0000,   0,1.0000,'            '
2.00000E-3,8.40000E-2, 100.00
1.030000,138.000,   0.000, 400.00, 510.00, 600.00,-1,     0,1.500000,0.510000,1.500000,0.510000,159, 0, 0.00000, 0.00000,  0.000
1.000000,230.000
   109,   112,    0,'1 ',1,1,1,0.00000E0,0.00000E0,2,'            ',1,   1,1.0000,   0,1.0000,   0,1.0000,   0,1.0000,'            '
2.00000E-3,8.40000E-2, 100.00
1.030000,138.000,   0.000, 400.00, 510.00, 600.00,-1,     0,1.500000,0.510000,1.500000,0.510000,159, 0, 0.00000, 0.00000,  0.000
1.000000,230.000
   110,   111,    0,'1 ',1,1,1,0.00000E0,0.00000E0,2,'            ',1,   1,1.0000,   0,1.0000,   0,1.0000,   0,1.0000,'            '
2.00000E-3,8.40000E-2, 100.00
1.015000,138.000,   0.000, 400.00, 510.00, 600.00,-1,     0,1.500000,0.510000,1.500000,0.510000,159, 0, 0.00000, 0.00000,  0.000
1.000000,230.000
   110,   112,    0,'1 ',1,1,1,0.00000E0,0.00000E0,2,'            ',1,   1,1.0000,   0,1.0000,   0,1.0000,   0,1.0000,'            '
2.00000E-3,8.40000E-2, 100.00
1.015000,138.000,   0.000, 400.00, 510.00, 600.00,-1,     0,1.500000,0.510000,1.500000,0.510000,159, 0, 0.00000, 0.00000,  0.000
1.000000,230.000
   203,   224,    0,'1 ',1,1,1,0.00000E0,0.00000E0,2,'            ',1,   1,1.0000,   0,1.0000,   0,1.0000,   0,1.0000,'            '
2.00000E-3,8.40000E-2, 100.00
1.015000,138.000,   0.000, 400.00, 510.00, 600.00,-1,     0,1.500000,0.510000,1.500000,0.510000,159, 0, 0.00000, 0.00000,  0.000
1.000000,230.000
   209,   211,    0,'1 ',1,1,1,0.00000E0,0.00000E0,2,'            ',1,   1,1.0000,   0,1.0000,   0,1.0000,   0,1.0000,'            '
2.00000E-3,8.40000E-2, 100.00
1.030000,138.000,   0.000, 400.00, 510.00, 600.00,-1,     0,1.500000,0.510000,1.500000,0.510000,159, 0, 0.00000, 0.00000,  0.000
1.000000,230.000
   209,   212,    0,'1 ',1,1,1,0.00000E0,0.00000E0,2,'            ',1,   1,1.0000,   0,1.0000,   0,1.0000,   0,1.0000,'            '
2.00000E-3,8.40000E-2, 100.00
1.030000,138.000,   0.000, 400.00, 510.00, 600.00,-1,     0,1.500000,0.510000,1.500000,0.510000,159, 0, 0.00000, 0.00000,  0.000
1.000000,230.000
   210,   211,    0,'1 ',1,1,1,0.00000E0,0.00000E0,2,'            ',1,   1,1.0000,   0,1.0000,   0,1.0000,   0,1.0000,'            '
2.00000E-3,8.40000E-2, 100.00
1.015000,138.000,   0.000, 400.00, 510.00, 600.00,-1,     0,1.500000,0.510000,1.500000,0.510000,159, 0, 0.00000, 0.00000,  0.000
1.000000,230.000
   210,   212,    0,'1 ',1,1,1,0.00000E0,0.00000E0,2,'            ',1,   1,1.0000,   0,1.0000,   0,1.0000,   0,1.0000,'            '
2.00000E-3,8.40000E-2, 100.00
1.015000,138.000,   0.000, 400.00, 510.00, 600.00,-1,     0,1.500000,0.510000,1.500000,0.510000,159, 0, 0.00000, 0.00000,  0.000
1.000000,230.000
   303,   324,    0,'1 ',1,1,1,0.00000E0,0.00000E0,2,'            ',1,   1,1.0000,   0,1.0000,   0,1.0000,   0,1.0000,'            '
2.00000E-3,8.40000E-2, 100.00
1.015000,138.000,   0.000, 400.00, 510.00, 600.00,-1,     0,1.500000,0.510000,1.500000,0.510000,159, 0, 0.00000, 0.00000,  0.000
1.000000,230.000
   309,   311,    0,'1 ',1,1,1,0.00000E0,0.00000E0,2,'            ',1,   1,1.0000,   0,1.0000,   0,1.0000,   0,1.0000,'            '
2.00000E-3,8.40000E-2, 100.00
1.030000,138.000,   0.000, 400.00, 510.00, 600.00,-1,     0,1.500000,0.510000,1.500000,0.510000,159, 0, 0.00000, 0.00000,  0.000
1.000000,230.000
   309,   312,    0,'1 ',1,1,1,0.00000E0,0.00000E0,2,'            ',1,   1,1.0000,   0,1.0000,   0,1.0000,   0,1.0000,'            '
2.00000E-3,8.40000E-2, 100.00
1.030000,138.000,   0.000, 400.00, 510.00, 600.00,-1,     0,1.500000,0.510000,1.500000,0.510000,159, 0, 0.00000, 0.00000,  0.000
1.000000,230.000
   310,   311,    0,'1 ',1,1,1,0.00000E0,0.00000E0,2,'            ',1,   1,1.0000,   0,1.0000,   0,1.0000,   0,1.0000,'            '
2.00000E-3,8.40000E-2, 100.00
1.015000,138.000,   0.000, 400.00, 510.00, 600.00,-1,     0,1.500000,0.510000,1.500000,0.510000,159, 0, 0.00000, 0.00000,  0.000
1.000000,230.000
   310,   312,    0,'1 ',1,1,1,0.00000E0,0.00000E0,2,'            ',1,   1,1.0000,   0,1.0000,   0,1.0000,   0,1.0000,'            '
2.00000E-3,8.40000E-2, 100.00
1.015000,138.000,   0.000, 400.00, 510.00, 600.00,-1,     0,1.500000,0.510000,1.500000,0.510000,159, 0, 0.00000, 0.00000,  0.000
1.000000,230.000
0 / END OF TRANSFORMER DATA, BEGIN AREA DATA
   1,    0,     0.000,     1.000,'1           '
   2,    0,     0.000,     1.000,'2           '
   3,    0,     0.000,     1.000,'3           '
0 / END OF AREA DATA, BEGIN TWO-TERMINAL DC DATA
0 / END OF TWO-TERMINAL DC DATA, BEGIN VOLTAGE SOURCE CONVERTER DATA
0 / END OF VOLTAGE SOURCE CONVERTER DATA, BEGIN IMPEDANCE CORRECTION DATA
0 / END OF IMPEDANCE CORRECTION DATA, BEGIN MULTI-TERMINAL DC DATA
0 / END OF MULTI-TERMINAL DC DATA, BEGIN MULTI-SECTION LINE DATA
0 / END OF MULTI-SECTION LINE DATA, BEGIN ZONE DATA
   1,'1       '
   2,'2       '
   3,'3       '
0 / END OF ZONE DATA, BEGIN INTER-AREA TRANSFER DATA
0 / END OF INTER-AREA TRANSFER DATA, BEGIN OWNER DATA
    1,'1'
0 / END OF OWNER DATA, BEGIN FACTS CONTROL DEVICE DATA
0 / END OF FACTS CONTROL DEVICE DATA, BEGIN SWITCHED SHUNT DATA
  106,0,0,1,1.05000,0.95000,    0,100.0,'        ', -100.00, 1,-100.00
  206,0,0,1,1.05000,0.95000,    0,100.0,'        ', -100.00, 1,-100.00
  306,0,0,1,1.05000,0.95000,    0,100.0,'        ', -100.00, 1,-100.00
0 /END OF SWITCHED SHUNT DATA, BEGIN GNE DEVICE DATA
0 /END OF GNE DEVICE DATA
Q
